Circuit: * C:\Users\liamb\Documents\University\2020\ENE\Practical 3\Spice sim\Draft2.asc

Per .tran options, skipping operating point for transient analysis.
Changing Tseed to 1e-008
Changing Tseed to 1e-010

Date: Fri Jun 12 21:03:45 2020
Total elapsed time: 0.153 seconds.

tnom = 27
temp = 27
method = modified trap
totiter = 7103
traniter = 7103
tranpoints = 1862
accept = 1381
rejected = 479
matrix size = 26
fillins = 16
solver = Normal
Thread vector: 8.8/4.7[2] 2.5/1.9[2] 1.2/1.2[1] 0.1/0.9[1]  2592/500
Matrix Compiler1: 2.21 KB object code size  0.5/0.3/[0.2]
Matrix Compiler2: off  [0.3]/0.4/0.9

