Circuit: * C:\Users\liamb\Documents\University\2020\ENE\Practical 3\Spice sim\Draft1.asc

Per .tran options, skipping operating point for transient analysis.

Date: Sat Jun 13 15:37:48 2020
Total elapsed time: 0.269 seconds.

tnom = 27
temp = 27
method = modified trap
totiter = 49371
traniter = 49371
tranpoints = 15417
accept = 10666
rejected = 4751
matrix size = 11
fillins = 3
solver = Normal
Matrix Compiler1: 620 bytes object code size  0.1/0.1/[0.1]
Matrix Compiler2: 1.02 KB object code size  0.1/0.1/[0.1]

