Circuit: * C:\Users\liamb\Documents\University\2020\ENE\Practical 2\Spice simulations\E96\10-4.asc

Limiting rise time of source v3 to 1e-007
Limiting fall time of source v3 to 1e-007
Direct Newton iteration for .op point succeeded.

Date: Wed May 27 14:40:45 2020
Total elapsed time: 0.062 seconds.

tnom = 27
temp = 27
method = modified trap
totiter = 589
traniter = 578
tranpoints = 290
accept = 263
rejected = 27
matrix size = 14
fillins = 5
solver = Normal
Matrix Compiler1: 1.01 KB object code size  0.2/0.1/[0.1]
Matrix Compiler2: 1.35 KB object code size  0.6/0.2/[0.1]

