Circuit: * C:\Users\liamb\Documents\University\2020\ENE\Practical 2\Spice simulations\E96\2nd order E96.asc

Direct Newton iteration for .op point succeeded.

Date: Wed May 20 15:20:22 2020
Total elapsed time: 0.040 seconds.

tnom = 27
temp = 27
method = modified trap
totiter = 211
traniter = 204
tranpoints = 103
accept = 80
rejected = 23
matrix size = 20
fillins = 2
solver = Normal
Matrix Compiler1: 978 bytes object code size  0.2/0.1/[0.1]
Matrix Compiler2: 1.64 KB object code size  0.2/0.2/[0.1]

