Circuit: * C:\Users\liamb\Documents\University\2020\ENE\Practical 2\Spice simulations\E96\Draft2.asc

Limiting rise time of source v3 to 0.01
Limiting fall time of source v3 to 0.01
WARNING: Less than two connections to node N004.  This node is used by D1.
WARNING: Less than two connections to node N007.  This node is used by D2.
Direct Newton iteration for .op point succeeded.
Ignoring empty pin current: Ix(u2:1)
Ignoring empty pin current: Ix(u2:2)
Ignoring empty pin current: Ix(u2:1)
Ignoring empty pin current: Ix(u2:2)

Date: Wed May 27 14:38:36 2020
Total elapsed time: 0.099 seconds.

tnom = 27
temp = 27
method = modified trap
totiter = 2754
traniter = 2732
tranpoints = 1367
accept = 1363
rejected = 4
matrix size = 22
fillins = 5
solver = Normal
Matrix Compiler1: 1.49 KB object code size  0.3/0.2/[0.1]
Matrix Compiler2: 1.65 KB object code size  0.1/0.2/[0.1]

