Circuit: * C:\Users\liamb\Documents\University\2020\ENE\Practical 2\Spice simulations\E96\High order E96 non ideal components.asc

Instance "m:u12:14": Length shorter than recommended for a level 1 MOSFET.
Instance "m:u12:12": Length shorter than recommended for a level 1 MOSFET.
Instance "m:u11:14": Length shorter than recommended for a level 1 MOSFET.
Instance "m:u11:12": Length shorter than recommended for a level 1 MOSFET.
Instance "m:u10:14": Length shorter than recommended for a level 1 MOSFET.
Instance "m:u10:12": Length shorter than recommended for a level 1 MOSFET.
Instance "m:u9:14": Length shorter than recommended for a level 1 MOSFET.
Instance "m:u9:12": Length shorter than recommended for a level 1 MOSFET.
Early termination of direct N-R iteration.
Direct Newton iteration failed to find .op point.  (Use ".option noopiter" to skip.)
Starting Gmin stepping
Increasing initial diagonal Gmin to 100
Increasing initial diagonal Gmin to 1000
Gmin = 1000
Gmin = 107.374
Gmin = 11.5292
vernier = 0.5
vernier = 0.25
vernier = 0.125
vernier = 0.0625
vernier = 0.03125
vernier = 0.015625
vernier = 0.0078125
vernier = 0.00390625
vernier = 0.00195313
vernier = 0.000976563
Gmin = 14.4115
vernier = 0.000488281
Gmin = 0
Gmin stepping failed

Starting source stepping with srcstepmethod=0
Source Step = 3.0303%
Source Step = 33.3333%
Source Step = 63.6364%
Source Step = 93.9394%
Source stepping succeeded in finding the operating point.

Ignoring empty pin current: Ix(u1:1)
Ignoring empty pin current: Ix(u1:2)
Ignoring empty pin current: Ix(u2:1)
Ignoring empty pin current: Ix(u2:2)
Ignoring empty pin current: Ix(u3:1)
Ignoring empty pin current: Ix(u3:2)
Ignoring empty pin current: Ix(u4:1)
Ignoring empty pin current: Ix(u4:2)
Ignoring empty pin current: Ix(u1:1)
Ignoring empty pin current: Ix(u1:2)
Ignoring empty pin current: Ix(u2:1)
Ignoring empty pin current: Ix(u2:2)
Ignoring empty pin current: Ix(u3:1)
Ignoring empty pin current: Ix(u3:2)
Ignoring empty pin current: Ix(u4:1)
Ignoring empty pin current: Ix(u4:2)
Heightened Def Con from 1.65099e-005 ++++++++++++++++++++++++++++++++++++++++++++++++++Fatal Error: Analysis:  Time step too small; time = 1.65099e-005, timestep = 1.25e-019: trouble with node "u11:30"

