Circuit: * C:\Users\liamb\Documents\University\2020\ENE\Practical 2\Spice simulations\E96\High order E96.asc

WARNING: Less than two connections to node POS_V.  This node is used by V2.
WARNING: Less than two connections to node NEG_V.  This node is used by V3.
Direct Newton iteration for .op point succeeded.
Ignoring empty pin current: Ix(u1:1)
Ignoring empty pin current: Ix(u1:2)
Ignoring empty pin current: Ix(u2:1)
Ignoring empty pin current: Ix(u2:2)
Ignoring empty pin current: Ix(u3:1)
Ignoring empty pin current: Ix(u3:2)
Ignoring empty pin current: Ix(u4:1)
Ignoring empty pin current: Ix(u4:2)
Ignoring empty pin current: Ix(u1:1)
Ignoring empty pin current: Ix(u1:2)
Ignoring empty pin current: Ix(u2:1)
Ignoring empty pin current: Ix(u2:2)
Ignoring empty pin current: Ix(u3:1)
Ignoring empty pin current: Ix(u3:2)
Ignoring empty pin current: Ix(u4:1)
Ignoring empty pin current: Ix(u4:2)

Date: Wed May 27 12:28:24 2020
Total elapsed time: 0.175 seconds.

tnom = 27
temp = 27
method = modified trap
totiter = 1153
traniter = 1150
tranpoints = 576
accept = 567
rejected = 9
matrix size = 18
fillins = 6
solver = Normal
Matrix Compiler1: 1.19 KB object code size  0.3/0.2/[0.1]
Matrix Compiler2: 1.34 KB object code size  0.1/0.2/[0.1]

