Circuit: * C:\Users\liamb\Documents\University\2020\ENE\Practical 2\Spice simulations\Ideal\2nd order.asc

Direct Newton iteration for .op point succeeded.

Date: Tue May 19 20:03:40 2020
Total elapsed time: 0.036 seconds.

tnom = 27
temp = 27
method = trap
totiter = 3
traniter = 0
tranpoints = 0
accept = 0
rejected = 0
matrix size = 10
fillins = 1
solver = Normal
Matrix Compiler1:      27 opcodes
Matrix Compiler2: 848 bytes object code size
