Circuit: * C:\Users\liamb\Documents\University\2020\ENE\Practical 2\Spice simulations\E12\2nd order E6.asc

Direct Newton iteration for .op point succeeded.

Date: Wed May 20 11:50:16 2020
Total elapsed time: 0.073 seconds.

tnom = 27
temp = 27
method = modified trap
totiter = 1037
traniter = 1034
tranpoints = 518
accept = 518
rejected = 0
matrix size = 10
fillins = 1
solver = Normal
Matrix Compiler1: 466 bytes object code size  0.1/0.1/[0.1]
Matrix Compiler2: 848 bytes object code size  0.1/0.1/[0.1]

