Circuit: * C:\Users\liamb\Documents\University\2020\ENE\Practical 2\Spice simulations\E12\Cascade E6.asc

WARNING: Less than two connections to node POS_V.  This node is used by V4.
WARNING: Less than two connections to node NEG_V.  This node is used by V5.
Ignoring empty pin current: Ix(u1:1)
Ignoring empty pin current: Ix(u1:2)
Ignoring empty pin current: Ix(u2:1)
Ignoring empty pin current: Ix(u2:2)
Ignoring empty pin current: Ix(u3:1)
Ignoring empty pin current: Ix(u3:2)
Ignoring empty pin current: Ix(u4:1)
Ignoring empty pin current: Ix(u4:2)

Date: Fri May 22 10:17:10 2020
Total elapsed time: 0.055 seconds.

tnom = 27
temp = 27
method = trap
totiter = 0
traniter = 0
tranpoints = 0
accept = 0
rejected = 0
matrix size = 18
fillins = 0
solver = Normal

