Circuit: * C:\Users\liamb\Documents\University\2020\ENE\Practical 2\Spice simulations\E12\High order E12.asc

WARNING: Less than two connections to node POS_V.  This node is used by V2.
WARNING: Less than two connections to node NEG_V.  This node is used by V3.
Ignoring empty pin current: Ix(u2:1)
Ignoring empty pin current: Ix(u2:2)
Ignoring empty pin current: Ix(u3:1)
Ignoring empty pin current: Ix(u3:2)
Ignoring empty pin current: Ix(u4:1)
Ignoring empty pin current: Ix(u4:2)
Ignoring empty pin current: Ix(u5:1)
Ignoring empty pin current: Ix(u5:2)

Date: Fri May 22 11:38:22 2020
Total elapsed time: 0.041 seconds.

tnom = 27
temp = 27
method = trap
totiter = 0
traniter = 0
tranpoints = 0
accept = 0
rejected = 0
matrix size = 18
fillins = 0
solver = Normal

